LAMMPS (16 Mar 2018)
units           metal
dimension       3
boundary        p p p

atom_style      full

read_data	DATA.FILE
  orthogonal box = (-70 -70 -70) to (70 70 70)
  reading atoms ...
  265838 atoms
  scanning bonds ...
  scanning angles ...
  reading bonds ...
  176634 bonds
  reading angles ...
  88317 angles
include     ../shared/PARM.FILE
# Generated by setup_lammps

pair_style      hybrid eam lj/charmm/coul/long 8.0 10.0
bond_style      harmonic
angle_style     charmm
kspace_style    pppm    0.0001
special_bonds   charmm

mass   1      196.9666 # AU
mass   2      15.9994 # OT
mass   3      1.0080 # HT

pair_coeff  1     1     eam ../shared/Au_u3.eam # AU   AU
Reading potential file ../shared/Au_u3.eam with DATE: 2007-06-11
pair_coeff  1     2     lj/charmm/coul/long 0.0256 3.6000 0.0000 1.7818 # OT   AU
pair_coeff  1     3     lj/charmm/coul/long -0.0000 2.6909 0.0000 1.7818 # HT   AU
pair_coeff  2     2     lj/charmm/coul/long 0.0067 3.1661 0.0000 1.7818 # OT   OT
pair_coeff  2     3     lj/charmm/coul/long -0.0000 2.4739 0.0000 1.7818 # HT   OT
pair_coeff  3     3     lj/charmm/coul/long 0.0000 1.7818 0.0000 1.7818 # HT   HT

bond_coeff  1       24.0679   1.0000 # OT HT

angle_coeff 1        1.9874 109.4000   0.0000   0.0000 # HT OT HT

group           AU type 1
887 atoms in group AU
group           water type 2 3
264951 atoms in group water
group		group1 type 1
887 atoms in group group1
group		group3 type 2 3
264951 atoms in group group3

timestep        0.001
run_style       verlet
neighbor 	2.0 bin
neigh_modify    every 1 delay 2 check yes

fix 		99 AU spring tether 10.0 0.0 0.0 0.0 0.0
fix 		fixmomentum all momentum 1 linear 1 1 1

dump       	23 all dcd  10000 out.dcd
#dump        233 all xyz 1 out.xyz

thermo_style custom step temp press enthalpy lx ly lz
thermo		1000

###### minimize
minimize 1e-4 1e-6 100 1000
PPPM initialization ...
  G vector (1/distance) = 0.263352
  grid = 72 72 72
  stencil order = 5
  estimated absolute RMS force accuracy = 0.00139571
  estimated relative force accuracy = 9.69266e-05
  3d grid and FFT values/proc = 2816 648
  update every 1 steps, delay 0 steps, check yes
Step Temp Press Enthalpy Lx Ly Lz
0            0    535562.27    1088094.8          140          140          140
Loop time of 2.46939 on 1088 procs for 100 steps with 265838 atoms

Minimization stats:
  Stopping criterion = max iterations
  Energy initial, next-to-last, final =
  Force two-norm initial, final = 944832 19.2034
  Force max component initial, final = 271828 1.72657
  Final line search alpha, max atom move = 0.0264969 0.0457486
  Iterations, force evaluations = 100 110

###### equilibrate - NVT

velocity all create 300.0 4928462 rot yes dist gaussian
fix 1 all nvt temp 300 300 $(100.0*dt)
fix 1 all nvt temp 300 300 0.10000000000000000555

run 1000000 # 1 ns
PPPM initialization ...
  G vector (1/distance) = 0.263352
  grid = 72 72 72
  stencil order = 5
  estimated absolute RMS force accuracy = 0.00139571
  estimated relative force accuracy = 9.69266e-05
  3d grid and FFT values/proc = 2816 648
  update every 1 steps, delay 2 steps, check yes
Step Temp Press Enthalpy Lx Ly Lz
100          300   -6068.5802    -53873.05          140          140          140
Averages over the last 501 of 1002 rows, steps 501000 to 1000100:
Temp Press Enthalpy Lx Ly Lz
299.985 -1254.74 -37903.5 140 140 140
Loop time of 19998.6 on 1088 procs for 1000000 steps with 265838 atoms

write_restart equil_nvt.rest
PPPM initialization ...
  G vector (1/distance) = 0.263352
  grid = 72 72 72
  stencil order = 5
  estimated absolute RMS force accuracy = 0.00139571
  estimated relative force accuracy = 9.69266e-05
  3d grid and FFT values/proc = 2816 648
  update every 1 steps, delay 2 steps, check yes

###### equilibrate - NPT

reset_timestep	0

unfix 1
fix 1 all npt temp 300 300 $(100.0*dt) iso 1.01325 1.01325 $(1000.0*dt)
fix 1 all npt temp 300 300 0.10000000000000000555 iso 1.01325 1.01325 $(1000.0*dt)
fix 1 all npt temp 300 300 0.10000000000000000555 iso 1.01325 1.01325 1

# 1 step per fs
# 1000 steps per ps
# 1000000 steps per ns
run 1000000 # 1 ns
PPPM initialization ...
  G vector (1/distance) = 0.263352
  grid = 72 72 72
  stencil order = 5
  estimated absolute RMS force accuracy = 0.00139571
  estimated relative force accuracy = 9.69266e-05
  3d grid and FFT values/proc = 2816 648
  update every 1 steps, delay 2 steps, check yes
Step Temp Press Enthalpy Lx Ly Lz
0    299.79905   -1260.2712   -37955.703          140          140          140
Averages over the last 501 of 1001 rows, steps 500000 to 1000000:
Temp Press Enthalpy Lx Ly Lz
300.01 -7.12082 -36107 137.431 137.431 137.431
Loop time of 21772.8 on 1088 procs for 1000000 steps with 265838 atoms

write_restart equil_npt.rest
PPPM initialization ...
  G vector (1/distance) = 0.264897
  grid = 72 72 72
  stencil order = 5
  estimated absolute RMS force accuracy = 0.00132176
  estimated relative force accuracy = 9.17911e-05
  3d grid and FFT values/proc = 2816 648
  update every 1 steps, delay 2 steps, check yes
